Version 4
SHEET 1 880 680
WIRE -112 -112 -112 -128
WIRE -608 -80 -608 -112
WIRE 368 -48 304 -48
WIRE 480 -48 448 -48
WIRE 16 -32 -112 -32
WIRE 176 -32 96 -32
WIRE -608 32 -608 0
WIRE -608 32 -672 32
WIRE -608 64 -608 32
WIRE 304 64 304 -48
WIRE 336 64 304 64
WIRE -112 80 -112 -32
WIRE -32 80 -112 80
WIRE 480 80 480 -48
WIRE 480 80 400 80
WIRE 528 80 480 80
WIRE 48 96 32 96
WIRE 176 96 176 -32
WIRE 176 96 112 96
WIRE 224 96 176 96
WIRE 336 96 224 96
WIRE -240 112 -336 112
WIRE -112 112 -240 112
WIRE -32 112 -112 112
WIRE 224 112 224 96
WIRE 176 128 176 96
WIRE -336 144 -336 112
WIRE -240 144 -240 112
WIRE 0 144 0 128
WIRE 368 144 368 112
WIRE -112 160 -112 112
WIRE -608 176 -608 144
WIRE 176 208 176 192
WIRE 224 208 224 192
WIRE -336 272 -336 224
WIRE -240 272 -240 224
WIRE -112 272 -112 240
FLAG 176 208 0
FLAG 304 -128 0
FLAG 224 208 0
FLAG -112 272 0
FLAG -112 -128 0
FLAG -240 272 0
FLAG -336 272 0
FLAG -672 32 0
FLAG -608 -112 +5V
IOPIN -608 -112 Out
FLAG -608 176 -5V
IOPIN -608 176 Out
FLAG 0 64 +5V
IOPIN 0 64 Out
FLAG 368 48 +5V
IOPIN 368 48 Out
FLAG 0 144 -5V
IOPIN 0 144 Out
FLAG 368 144 -5V
IOPIN 368 144 Out
FLAG 528 80 V_out
IOPIN 528 80 Out
SYMBOL Opamps\\opamp2 0 32 R0
WINDOW 0 -20 64 Left 2
WINDOW 3 -100 95 Left 2
SYMATTR InstName U1
SYMATTR Value TLC2272
SYMATTR SpiceModel TLC2272
SYMBOL Opamps\\opamp2 368 16 R0
WINDOW 0 -20 63 Left 2
WINDOW 3 22 83 Left 2
SYMATTR InstName U2
SYMATTR Value TLC2272
SYMATTR SpiceModel TLC2272
SYMBOL diode 48 112 R270
WINDOW 0 32 32 VTop 2
WINDOW 3 0 32 VBottom 2
SYMATTR InstName D1
SYMATTR Value 1N4148
SYMBOL cap 192 128 M0
SYMATTR InstName C1
SYMATTR Value 33µ
SYMBOL res 464 -64 R90
WINDOW 0 0 56 VBottom 2
WINDOW 3 32 56 VTop 2
SYMATTR InstName R3
SYMATTR Value 5.6k
SYMBOL res 320 -144 M0
SYMATTR InstName R4
SYMATTR Value 3.3k
SYMBOL res 208 96 R0
SYMATTR InstName R6
SYMATTR Value 1Meg
SYMBOL res -128 144 R0
SYMATTR InstName R7
SYMATTR Value 30m
SYMBOL current -336 224 R180
WINDOW 0 40 65 Left 2
WINDOW 3 36 35 Left 2
WINDOW 123 0 0 Left 0
WINDOW 39 0 0 Left 0
SYMATTR InstName I1
SYMATTR Value SINE(0 100m 50)
SYMBOL current -240 224 R180
WINDOW 0 24 80 Left 2
WINDOW 3 3 -9 Left 2
WINDOW 123 0 0 Left 0
WINDOW 39 0 0 Left 0
SYMATTR InstName I2
SYMATTR Value SINE(0 10m 50 5)
SYMBOL res 112 -48 R90
WINDOW 0 0 56 VBottom 2
WINDOW 3 32 56 VTop 2
SYMATTR InstName R8
SYMATTR Value 180k
SYMBOL res -96 -16 R180
WINDOW 0 36 76 Left 2
WINDOW 3 36 40 Left 2
SYMATTR InstName R9
SYMATTR Value 1k
SYMBOL voltage -608 -96 R0
WINDOW 123 0 0 Left 0
WINDOW 39 0 0 Left 0
SYMATTR InstName V1
SYMATTR Value 5
SYMBOL voltage -608 48 R0
WINDOW 123 0 0 Left 0
WINDOW 39 0 0 Left 0
SYMATTR InstName V2
SYMATTR Value 5
TEXT 56 -216 Left 2 !.inc TLC2272.lib
TEXT 56 -184 Left 2 !.tran 0 10 10m
