Version 4
SHEET 1 880 680
WIRE 464 -48 304 -48
WIRE 176 -32 80 -32
WIRE 368 -32 176 -32
WIRE 464 -32 464 -48
WIRE 176 0 16 0
WIRE 272 0 256 0
WIRE 368 48 368 -32
WIRE 80 64 80 -32
WIRE 304 64 304 -48
WIRE 336 64 304 64
WIRE 16 80 16 0
WIRE 48 80 16 80
WIRE 464 80 464 48
WIRE 464 80 400 80
WIRE 160 96 112 96
WIRE 272 96 272 0
WIRE 272 96 224 96
WIRE 320 96 272 96
WIRE 336 96 320 96
WIRE -448 112 -576 112
WIRE -272 112 -368 112
WIRE 48 112 -272 112
WIRE -576 128 -576 112
WIRE 272 128 272 96
WIRE -272 176 -272 112
WIRE -576 240 -576 208
WIRE 80 288 80 128
WIRE 176 288 80 288
WIRE 368 288 368 112
WIRE 368 288 176 288
WIRE -576 352 -576 320
WIRE -272 352 -272 256
FLAG 272 192 0
FLAG -576 352 0
FLAG 176 -112 0
FLAG 176 368 0
FLAG 304 -128 0
FLAG 544 80 0
FLAG 320 176 0
FLAG -272 352 0
FLAG 16 -80 0
SYMBOL Opamps\\opamp2 80 32 R0
SYMATTR InstName U1
SYMATTR Value TLC2272
SYMATTR SpiceModel TLC2272
SYMBOL Opamps\\opamp2 368 16 R0
SYMATTR InstName U2
SYMATTR Value TLC2272
SYMATTR SpiceModel TLC2272
SYMBOL diode 160 112 R270
WINDOW 0 32 32 VTop 2
WINDOW 3 0 32 VBottom 2
SYMATTR InstName D1
SYMATTR Value 1N4148
SYMBOL cap 256 128 R0
SYMATTR InstName C1
SYMATTR Value 33µ
SYMBOL voltage 176 -16 R180
WINDOW 0 24 96 Left 2
WINDOW 3 24 16 Left 2
WINDOW 123 0 0 Left 0
WINDOW 39 0 0 Left 0
SYMATTR InstName V2
SYMATTR Value 5.05
SYMBOL voltage 176 272 R0
WINDOW 123 0 0 Left 0
WINDOW 39 0 0 Left 0
SYMATTR InstName V3
SYMATTR Value -5.2
SYMBOL res 480 64 R180
WINDOW 0 36 76 Left 2
WINDOW 3 36 40 Left 2
SYMATTR InstName R3
SYMATTR Value 5.6k
SYMBOL res 288 -144 R0
SYMATTR InstName R4
SYMATTR Value 3.3k
SYMBOL res 560 64 R90
WINDOW 0 0 56 VBottom 2
WINDOW 3 32 56 VTop 2
SYMATTR InstName R5
SYMATTR Value 100k
SYMBOL res 304 80 R0
SYMATTR InstName R6
SYMATTR Value 1Meg
SYMBOL res -288 160 R0
SYMATTR InstName R7
SYMATTR Value 30m
SYMBOL current -464 -64 M180
WINDOW 0 24 80 Left 2
WINDOW 3 24 0 Left 2
WINDOW 123 0 0 Left 0
WINDOW 39 0 0 Left 0
SYMATTR InstName I1
SYMATTR Value SINE(0 200m 50)
SYMBOL current -720 -80 M180
WINDOW 0 24 80 Left 2
WINDOW 3 24 0 Left 2
WINDOW 123 0 0 Left 0
WINDOW 39 0 0 Left 0
SYMATTR InstName I2
SYMATTR Value SINE(0 -20m 50 5)
SYMBOL res 272 -16 R90
WINDOW 0 0 56 VBottom 2
WINDOW 3 32 56 VTop 2
SYMATTR InstName R8
SYMATTR Value 180k
SYMBOL res 32 16 R180
WINDOW 0 36 76 Left 2
WINDOW 3 36 40 Left 2
SYMATTR InstName R9
SYMATTR Value 1k
SYMBOL voltage -576 224 R0
WINDOW 123 0 0 Left 0
WINDOW 39 0 0 Left 0
SYMATTR InstName V1
SYMATTR Value SINE(0 20 50)
SYMBOL voltage -576 112 R0
WINDOW 123 0 0 Left 0
WINDOW 39 0 0 Left 0
SYMATTR InstName V4
SYMATTR Value SINE(0 -0.1 50 5)
SYMBOL res -352 96 R90
WINDOW 0 0 56 VBottom 2
WINDOW 3 32 56 VTop 2
SYMATTR InstName R1
SYMATTR Value 100
TEXT 112 -192 Left 2 !.inc TL081.lib
TEXT 112 -168 Left 2 !.inc TLC2272.lib
TEXT -368 392 Left 2 !.tran 0 10 10m
