Version 4
SHEET 1 1064 680
WIRE 32 -128 -48 -128
WIRE 144 -128 96 -128
WIRE -160 -32 -192 -32
WIRE -48 -32 -48 -128
WIRE -48 -32 -80 -32
WIRE 16 -32 -48 -32
WIRE 144 -32 144 -128
WIRE 144 -32 96 -32
WIRE 496 -32 144 -32
WIRE -192 32 -192 -32
WIRE -48 48 -48 -32
WIRE 0 48 -48 48
WIRE 272 48 208 48
WIRE 336 80 208 80
WIRE 368 80 336 80
WIRE 496 80 496 -32
WIRE 496 80 448 80
WIRE 624 80 496 80
WIRE 704 80 624 80
WIRE 832 80 768 80
WIRE 928 80 832 80
WIRE 960 80 928 80
WIRE -384 112 -496 112
WIRE -272 112 -320 112
WIRE -112 112 -272 112
WIRE 0 112 -112 112
WIRE 272 112 272 48
WIRE 272 112 208 112
WIRE -496 208 -496 192
WIRE -272 208 -272 176
WIRE -112 208 -112 176
WIRE 272 208 272 112
WIRE 336 208 336 144
WIRE 496 208 496 144
WIRE 624 208 624 144
WIRE 736 208 736 128
WIRE 832 208 832 144
FLAG 272 208 0
FLAG 336 208 0
FLAG 496 208 0
FLAG -112 208 0
FLAG -272 208 0
FLAG -496 208 0
FLAG 960 80 5V
IOPIN 960 80 Out
FLAG 624 208 0
FLAG 832 208 0
FLAG 736 208 0
FLAG -192 32 0
FLAG -176 192 0
FLAG 928 160 0
SYMBOL voltage -496 96 R0
WINDOW 0 39 36 Left 2
WINDOW 3 -2 96 Left 2
WINDOW 123 0 0 Left 0
WINDOW 39 0 0 Left 0
SYMATTR InstName V1
SYMATTR Value SINE(0 25.4558 50)
SYMBOL AutoGenerated\\LM2595_ADJ_TRANS 96 80 R0
SYMATTR InstName U1
SYMBOL cap -128 112 R0
WINDOW 0 35 16 Left 2
WINDOW 3 37 42 Left 2
SYMATTR InstName C1
SYMATTR Value 220µ
SYMATTR SpiceLine V=25
SYMBOL ind 352 96 R270
WINDOW 0 32 56 VTop 2
WINDOW 3 5 56 VBottom 2
SYMATTR InstName L1
SYMATTR Value 68µ
SYMBOL cap 480 80 R0
SYMATTR InstName C2
SYMATTR Value 220µ
SYMATTR SpiceLine V=35
SYMBOL schottky 352 144 R180
WINDOW 0 -20 2 Left 2
WINDOW 3 -78 -24 Left 2
SYMATTR InstName D1
SYMATTR Value 1N5822
SYMBOL diode -384 128 R270
WINDOW 0 32 32 VTop 2
WINDOW 3 0 32 VBottom 2
SYMATTR InstName D2
SYMATTR Value 1N4007
SYMBOL cap -288 112 R0
SYMATTR InstName C3
SYMATTR Value 220µ
SYMBOL AutoGenerated\\LM7805 736 96 R0
WINDOW 0 -1 -78 Bottom 2
WINDOW 3 -1 -74 Top 2
SYMATTR InstName U2
SYMATTR SpiceModel LM7805
SYMBOL cap 608 80 R0
WINDOW 0 29 16 Left 2
SYMATTR InstName C4
SYMATTR Value 0.33µ
SYMBOL cap 816 80 R0
WINDOW 0 31 17 Left 2
SYMATTR InstName C5
SYMATTR Value 0.1µ
SYMBOL res 112 -48 R90
WINDOW 0 0 56 VBottom 2
WINDOW 3 32 56 VTop 2
SYMATTR InstName R1
SYMATTR Value 4700
SYMBOL res -64 -48 R90
WINDOW 0 0 56 VBottom 2
WINDOW 3 32 56 VTop 2
SYMATTR InstName R2
SYMATTR Value 1000
SYMBOL cap 96 -144 R90
WINDOW 0 0 32 VBottom 2
WINDOW 3 32 32 VTop 2
SYMATTR InstName C6
SYMATTR Value 3.3n
SYMBOL res 912 64 R0
SYMATTR InstName R3
SYMATTR Value 100
TEXT 184 -88 Left 2 !.tran 0 0.5 0 1m
TEXT 176 -120 Left 2 !.inc LM2595_ADJ_TRANS.lib
TEXT 184 -144 Left 2 !.inc LM78XX_RS.lib
