Version 4
SHEET 1 3444 1252
WIRE 144 -128 64 -128
WIRE 256 -128 208 -128
WIRE -48 -32 -80 -32
WIRE 64 -32 64 -128
WIRE 64 -32 32 -32
WIRE 128 -32 64 -32
WIRE 256 -32 256 -128
WIRE 256 -32 208 -32
WIRE 608 -32 256 -32
WIRE -80 32 -80 -32
WIRE -736 48 -800 48
WIRE -592 48 -672 48
WIRE -480 48 -592 48
WIRE -400 48 -480 48
WIRE 64 48 64 -32
WIRE 112 48 64 48
WIRE 384 48 320 48
WIRE 448 80 320 80
WIRE 480 80 448 80
WIRE 608 80 608 -32
WIRE 608 80 560 80
WIRE -592 96 -592 48
WIRE -480 96 -480 48
WIRE -800 112 -800 48
WIRE 112 112 64 112
WIRE 384 112 384 48
WIRE 384 112 320 112
WIRE 1088 112 1056 112
WIRE 1216 112 1152 112
WIRE 1280 112 1216 112
WIRE -592 208 -592 160
WIRE -480 208 -480 160
WIRE 384 208 384 112
WIRE 448 208 448 144
WIRE 608 208 608 144
WIRE -800 240 -800 192
WIRE 1120 240 1120 160
WIRE 1216 240 1216 176
WIRE 32 528 -128 528
WIRE 224 528 32 528
WIRE 224 576 224 528
WIRE 160 624 80 624
WIRE 80 640 80 624
WIRE -128 656 -128 528
WIRE -128 752 -128 736
WIRE 80 752 80 720
WIRE 80 752 -128 752
WIRE 224 752 224 672
WIRE 336 752 224 752
WIRE 512 752 400 752
WIRE 592 752 512 752
WIRE 720 752 656 752
WIRE 816 752 720 752
WIRE 864 752 816 752
WIRE 1008 752 944 752
WIRE 1136 752 1008 752
WIRE -128 784 -128 752
WIRE 512 816 512 752
WIRE 720 816 720 752
WIRE -384 832 -464 832
WIRE -240 832 -304 832
WIRE -192 832 -240 832
WIRE 224 832 224 752
WIRE 816 832 816 752
WIRE 1008 832 1008 752
WIRE -464 848 -464 832
WIRE 160 880 80 880
WIRE -464 1024 -464 928
WIRE -128 1024 -128 880
WIRE 224 1024 224 928
WIRE 512 1024 512 880
WIRE 720 1024 720 880
WIRE 816 1024 816 896
WIRE 1008 1024 1008 896
WIRE -240 1072 -240 832
WIRE 80 1072 80 960
WIRE 80 1072 -240 1072
FLAG 384 208 0
FLAG 448 208 0
FLAG 608 208 0
FLAG -480 208 0
FLAG -592 208 0
FLAG -800 240 0
FLAG 1280 112 5V
IOPIN 1280 112 Out
FLAG 1216 240 0
FLAG 1120 240 0
FLAG -80 32 0
FLAG -464 1024 0
FLAG -128 1024 0
FLAG 224 1024 0
FLAG 512 1024 0
FLAG 720 1024 0
FLAG 816 1024 0
FLAG 1136 752 -5V
IOPIN 1136 752 Out
FLAG 32 528 9.5V
IOPIN 32 528 In
FLAG -400 48 18VDC
IOPIN -400 48 In
FLAG 608 -32 9.5V
IOPIN 608 -32 Out
FLAG 1008 1024 0
FLAG 64 112 18VDC
IOPIN 64 112 In
FLAG 1056 112 9.5V
IOPIN 1056 112 In
SYMBOL voltage -800 96 R0
WINDOW 0 39 36 Left 2
WINDOW 3 -2 96 Left 2
WINDOW 123 0 0 Left 0
WINDOW 39 0 0 Left 0
SYMATTR InstName V1
SYMATTR Value SINE(0 26 50)
SYMBOL AutoGenerated\\LM2595_ADJ_TRANS 208 80 R0
SYMATTR InstName U1
SYMBOL cap -496 96 R0
WINDOW 0 35 16 Left 2
WINDOW 3 37 42 Left 2
SYMATTR InstName C1
SYMATTR Value 220µ
SYMATTR SpiceLine V=25
SYMBOL ind 464 96 R270
WINDOW 0 32 56 VTop 2
WINDOW 3 5 56 VBottom 2
SYMATTR InstName L1
SYMATTR Value 68µ
SYMBOL cap 592 80 R0
SYMATTR InstName C2
SYMATTR Value 220µ
SYMATTR SpiceLine V=35
SYMBOL schottky 464 144 R180
WINDOW 0 -20 2 Left 2
WINDOW 3 -78 -24 Left 2
SYMATTR InstName D1
SYMATTR Value 1N5822
SYMBOL diode -736 64 R270
WINDOW 0 32 32 VTop 2
WINDOW 3 0 32 VBottom 2
SYMATTR InstName D2
SYMATTR Value 1N4007
SYMBOL cap -608 96 R0
SYMATTR InstName C3
SYMATTR Value 220µ
SYMBOL AutoGenerated\\LM7805 1120 128 R0
WINDOW 0 -1 -78 Bottom 2
WINDOW 3 -1 -74 Top 2
SYMATTR InstName U2
SYMATTR SpiceModel LM7805
SYMBOL cap 1200 112 R0
WINDOW 0 31 17 Left 2
SYMATTR InstName C5
SYMATTR Value 0.1µ
SYMBOL res 224 -48 R90
WINDOW 0 0 56 VBottom 2
WINDOW 3 32 56 VTop 2
SYMATTR InstName R1
SYMATTR Value 6800
SYMBOL res 48 -48 R90
WINDOW 0 0 56 VBottom 2
WINDOW 3 32 56 VTop 2
SYMATTR InstName R2
SYMATTR Value 1000
SYMBOL cap 208 -144 R90
WINDOW 0 0 32 VBottom 2
WINDOW 3 32 32 VTop 2
SYMATTR InstName C6
SYMATTR Value 3.3n
SYMBOL res -144 640 R0
SYMATTR InstName R3
SYMATTR Value 560
SYMBOL res -288 816 R90
WINDOW 0 0 56 VBottom 2
WINDOW 3 32 56 VTop 2
SYMATTR InstName R4
SYMATTR Value 560
SYMBOL res 96 736 R180
WINDOW 0 36 76 Left 2
WINDOW 3 36 40 Left 2
SYMATTR InstName R5
SYMATTR Value 150
SYMBOL res 96 976 R180
WINDOW 0 36 76 Left 2
WINDOW 3 36 40 Left 2
SYMATTR InstName R6
SYMATTR Value 150
SYMBOL npn -192 784 R0
SYMATTR InstName Q1
SYMATTR Value 2N3904
SYMBOL npn 160 576 R0
SYMATTR InstName Q2
SYMATTR Value 2N3904
SYMBOL npn 160 832 R0
SYMATTR InstName Q3
SYMATTR Value 2N3904
SYMBOL voltage -464 832 R0
WINDOW 123 0 0 Left 0
WINDOW 39 0 0 Left 0
SYMATTR InstName V2
SYMATTR Value PULSE(0 5 0 0 0 50u 100u)
SYMBOL cap 400 736 R90
WINDOW 0 0 32 VBottom 2
WINDOW 3 32 32 VTop 2
SYMATTR InstName C4
SYMATTR Value 220µ
SYMBOL cap 736 880 R180
WINDOW 0 24 56 Left 2
WINDOW 3 24 8 Left 2
SYMATTR InstName C7
SYMATTR Value 220µ
SYMBOL diode 528 816 M0
SYMATTR InstName D3
SYMATTR Value 1N4007
SYMBOL diode 656 736 R90
WINDOW 0 0 32 VBottom 2
WINDOW 3 32 32 VTop 2
SYMATTR InstName D4
SYMATTR Value 1N4007
SYMBOL zener 800 832 R0
SYMATTR InstName D5
SYMATTR Value BZX384B5V1
SYMBOL res 960 736 R90
WINDOW 0 0 56 VBottom 2
WINDOW 3 32 56 VTop 2
SYMATTR InstName R9
SYMATTR Value 18
SYMBOL cap 992 832 R0
SYMATTR InstName C8
SYMATTR Value 100µ
TEXT -848 -120 Left 3 !.tran 0 100m 0 1m
TEXT -848 -160 Left 3 !.inc LM2595_ADJ_TRANS.lib
TEXT -848 -200 Left 3 !.inc LM78XX_RS.lib
TEXT -736 344 Left 4 ;Half-Wave Rectifier
TEXT 136 344 Left 4 ;SwitchMode Regulator
TEXT 1008 344 Left 4 ;Linear Regulator
TEXT 240 1224 Left 4 ;Charge Pump
RECTANGLE Normal -240 320 -880 -32 3
RECTANGLE Normal 704 320 -96 -192 3
RECTANGLE Normal 1376 320 944 -16 3
RECTANGLE Normal 1248 1200 -576 416 3
