Version 4
SHEET 1 3444 680
WIRE 1360 -208 544 -208
WIRE 1680 -208 1360 -208
WIRE 2240 -208 1680 -208
WIRE 2240 -160 2240 -208
WIRE 32 -128 -48 -128
WIRE 144 -128 96 -128
WIRE 2176 -112 2080 -112
WIRE 1680 -80 1680 -208
WIRE 2080 -80 2080 -112
WIRE -160 -32 -192 -32
WIRE -48 -32 -48 -128
WIRE -48 -32 -80 -32
WIRE 16 -32 -48 -32
WIRE 144 -32 144 -128
WIRE 144 -32 96 -32
WIRE 496 -32 144 -32
WIRE 512 -32 496 -32
WIRE 544 -32 544 -208
WIRE 544 -32 512 -32
WIRE 1680 16 1680 0
WIRE 2080 16 2080 0
WIRE 2080 16 1680 16
WIRE 2240 16 2240 -64
WIRE 2432 16 2240 16
WIRE 2528 16 2496 16
WIRE 2560 16 2528 16
WIRE 2640 16 2624 16
WIRE 2736 16 2640 16
WIRE 2800 16 2736 16
WIRE 2928 16 2880 16
WIRE 3120 16 2928 16
WIRE 3200 16 3120 16
WIRE -192 32 -192 -32
WIRE -48 48 -48 -32
WIRE 0 48 -48 48
WIRE 272 48 208 48
WIRE 1680 48 1680 16
WIRE 336 80 208 80
WIRE 368 80 336 80
WIRE 496 80 496 -32
WIRE 496 80 448 80
WIRE 704 80 496 80
WIRE 832 80 768 80
WIRE 928 80 832 80
WIRE 960 80 928 80
WIRE 2528 80 2528 16
WIRE 2640 80 2640 16
WIRE 3120 80 3120 16
WIRE 1424 96 1344 96
WIRE 1568 96 1504 96
WIRE 1616 96 1568 96
WIRE 2240 96 2240 16
WIRE 2736 96 2736 16
WIRE 2928 96 2928 16
WIRE -576 112 -688 112
WIRE -368 112 -512 112
WIRE -256 112 -368 112
WIRE -224 112 -256 112
WIRE 0 112 -224 112
WIRE 272 112 272 48
WIRE 272 112 208 112
WIRE 1344 112 1344 96
WIRE 2176 144 2064 144
WIRE 2064 160 2064 144
WIRE -688 208 -688 192
WIRE -368 208 -368 176
WIRE -224 208 -224 176
WIRE 272 208 272 112
WIRE 336 208 336 144
WIRE 496 208 496 144
WIRE 736 208 736 128
WIRE 832 208 832 144
WIRE 928 208 928 160
WIRE 1344 288 1344 192
WIRE 1680 288 1680 144
WIRE 2240 288 2240 192
WIRE 2528 288 2528 144
WIRE 2640 288 2640 144
WIRE 2736 288 2736 160
WIRE 2928 288 2928 160
WIRE 3120 288 3120 160
WIRE 2928 304 2928 288
WIRE 1568 336 1568 96
WIRE 2064 336 2064 240
WIRE 2064 336 1568 336
FLAG 272 208 0
FLAG 336 208 0
FLAG 496 208 0
FLAG -224 208 0
FLAG -368 208 0
FLAG -688 208 0
FLAG 960 80 5V
IOPIN 960 80 Out
FLAG 832 208 0
FLAG 736 208 0
FLAG -192 32 0
FLAG 1344 288 0
FLAG 1680 288 0
FLAG 2240 288 0
FLAG 2528 288 0
FLAG 2640 288 0
FLAG 2736 288 0
FLAG 3120 288 0
FLAG 3200 16 -5V
IOPIN 3200 16 Out
FLAG 1360 -208 9.5V
IOPIN 1360 -208 Out
FLAG 928 208 0
FLAG -256 112 18VDC
IOPIN -256 112 In
FLAG 512 -32 9.5V
IOPIN 512 -32 Out
FLAG 2928 288 0
SYMBOL voltage -688 96 R0
WINDOW 0 39 36 Left 2
WINDOW 3 -2 96 Left 2
WINDOW 123 0 0 Left 0
WINDOW 39 0 0 Left 0
SYMATTR InstName V1
SYMATTR Value SINE(0 25.4558 50)
SYMBOL AutoGenerated\\LM2595_ADJ_TRANS 96 80 R0
SYMATTR InstName U1
SYMBOL cap -240 112 R0
WINDOW 0 35 16 Left 2
WINDOW 3 37 42 Left 2
SYMATTR InstName C1
SYMATTR Value 220µ
SYMATTR SpiceLine V=25
SYMBOL ind 352 96 R270
WINDOW 0 32 56 VTop 2
WINDOW 3 5 56 VBottom 2
SYMATTR InstName L1
SYMATTR Value 68µ
SYMBOL cap 480 80 R0
SYMATTR InstName C2
SYMATTR Value 220µ
SYMATTR SpiceLine V=35
SYMBOL schottky 352 144 R180
WINDOW 0 -20 2 Left 2
WINDOW 3 -78 -24 Left 2
SYMATTR InstName D1
SYMATTR Value 1N5822
SYMBOL diode -576 128 R270
WINDOW 0 32 32 VTop 2
WINDOW 3 0 32 VBottom 2
SYMATTR InstName D2
SYMATTR Value 1N4007
SYMBOL cap -384 112 R0
SYMATTR InstName C3
SYMATTR Value 220µ
SYMBOL AutoGenerated\\LM7805 736 96 R0
WINDOW 0 -1 -78 Bottom 2
WINDOW 3 -1 -74 Top 2
SYMATTR InstName U2
SYMATTR SpiceModel LM7805
SYMBOL cap 816 80 R0
WINDOW 0 31 17 Left 2
SYMATTR InstName C5
SYMATTR Value 0.1µ
SYMBOL res 112 -48 R90
WINDOW 0 0 56 VBottom 2
WINDOW 3 32 56 VTop 2
SYMATTR InstName R1
SYMATTR Value 6800
SYMBOL res -64 -48 R90
WINDOW 0 0 56 VBottom 2
WINDOW 3 32 56 VTop 2
SYMATTR InstName R2
SYMATTR Value 1000
SYMBOL cap 96 -144 R90
WINDOW 0 0 32 VBottom 2
WINDOW 3 32 32 VTop 2
SYMATTR InstName C6
SYMATTR Value 3.3n
SYMBOL res 1664 -96 R0
SYMATTR InstName R3
SYMATTR Value 560
SYMBOL res 1520 80 R90
WINDOW 0 0 56 VBottom 2
WINDOW 3 32 56 VTop 2
SYMATTR InstName R4
SYMATTR Value 560
SYMBOL res 2096 16 R180
WINDOW 0 36 76 Left 2
WINDOW 3 36 40 Left 2
SYMATTR InstName R5
SYMATTR Value 150
SYMBOL res 2080 256 R180
WINDOW 0 36 76 Left 2
WINDOW 3 36 40 Left 2
SYMATTR InstName R6
SYMATTR Value 150
SYMBOL res 3136 176 R180
WINDOW 0 36 76 Left 2
WINDOW 3 36 40 Left 2
SYMATTR InstName R7
SYMATTR Value 220
SYMBOL npn 1616 48 R0
SYMATTR InstName Q1
SYMATTR Value 2N3904
SYMBOL npn 2176 -160 R0
SYMATTR InstName Q2
SYMATTR Value 2N3904
SYMBOL npn 2176 96 R0
SYMATTR InstName Q3
SYMATTR Value 2N3904
SYMBOL voltage 1344 96 R0
WINDOW 123 0 0 Left 0
WINDOW 39 0 0 Left 0
SYMATTR InstName V2
SYMATTR Value PULSE(0 5 0 0 0 50u 100u)
SYMBOL cap 2496 0 R90
WINDOW 0 0 32 VBottom 2
WINDOW 3 32 32 VTop 2
SYMATTR InstName C4
SYMATTR Value 220µ
SYMBOL cap 2656 144 R180
WINDOW 0 24 56 Left 2
WINDOW 3 24 8 Left 2
SYMATTR InstName C7
SYMATTR Value 220µ
SYMBOL diode 2544 80 M0
SYMATTR InstName D3
SYMATTR Value 1N4007
SYMBOL diode 2624 0 R90
WINDOW 0 0 32 VBottom 2
WINDOW 3 32 32 VTop 2
SYMATTR InstName D4
SYMATTR Value 1N4007
SYMBOL zener 2720 96 R0
SYMATTR InstName D5
SYMATTR Value BZX384B5V1
SYMBOL res 912 64 R0
SYMATTR InstName R8
SYMATTR Value 100
SYMBOL res 2896 0 R90
WINDOW 0 0 56 VBottom 2
WINDOW 3 32 56 VTop 2
SYMATTR InstName R9
SYMATTR Value 18
SYMBOL cap 2912 96 R0
SYMATTR InstName C8
SYMATTR Value 100µ
TEXT 632 -440 Left 2 !.tran 0 100m 0 1m
TEXT 624 -472 Left 2 !.inc LM2595_ADJ_TRANS.lib
TEXT 632 -496 Left 2 !.inc LM78XX_RS.lib
