Version 4
SHEET 1 1264 1064
WIRE 720 -96 720 -128
WIRE 928 -80 928 -112
WIRE 720 16 720 -16
WIRE 720 16 640 16
WIRE 928 16 928 0
WIRE 992 16 928 16
WIRE 720 32 720 16
WIRE -416 48 -416 16
WIRE 928 48 928 16
WIRE -448 64 -480 64
WIRE -320 80 -384 80
WIRE -736 96 -864 96
WIRE -656 96 -736 96
WIRE -512 96 -576 96
WIRE -448 96 -512 96
WIRE -736 128 -736 96
WIRE -512 128 -512 96
WIRE -416 144 -416 112
WIRE 720 144 720 112
WIRE 928 144 928 128
WIRE 224 160 224 144
WIRE -864 192 -864 96
WIRE -736 240 -736 208
WIRE -512 240 -512 208
WIRE 224 256 224 240
WIRE 336 256 224 256
WIRE 448 256 416 256
WIRE -32 304 -32 240
WIRE -736 320 -736 304
WIRE -672 320 -736 320
WIRE -736 352 -736 320
WIRE 224 368 224 256
WIRE 304 368 224 368
WIRE -32 384 -32 368
WIRE 16 384 -32 384
WIRE 448 384 448 256
WIRE 448 384 368 384
WIRE 496 384 448 384
WIRE 128 400 96 400
WIRE 256 400 208 400
WIRE 304 400 256 400
WIRE 16 416 -32 416
WIRE 256 416 256 400
WIRE -32 432 -32 416
WIRE -736 464 -736 432
WIRE -864 480 -864 272
WIRE 256 496 256 480
WIRE -32 560 -32 496
WIRE -768 640 -768 624
WIRE -720 640 -768 640
WIRE -608 640 -640 640
WIRE -400 752 -400 720
WIRE -432 768 -448 768
WIRE -768 784 -768 640
WIRE -736 784 -768 784
WIRE -288 784 -368 784
WIRE -608 800 -608 640
WIRE -608 800 -672 800
WIRE -432 800 -608 800
WIRE -736 816 -832 816
WIRE -400 832 -400 816
FLAG -864 480 0
FLAG -512 240 0
FLAG 256 496 0
FLAG -736 464 0
FLAG 224 144 0
FLAG -768 544 0
FLAG 928 144 0
FLAG -480 64 0
FLAG 640 16 0
FLAG 720 -128 +5V
IOPIN 720 -128 Out
FLAG 720 144 -5V
IOPIN 720 144 Out
FLAG 336 352 +5V
IOPIN 336 352 Out
FLAG -400 720 +5V
IOPIN -400 720 Out
FLAG -704 768 +5V
IOPIN -704 768 Out
FLAG 928 -112 +5V
IOPIN 928 -112 Out
FLAG 336 416 -5V
IOPIN 336 416 Out
FLAG -400 832 -5V
IOPIN -400 832 Out
FLAG -704 832 -5V
IOPIN -704 832 Out
FLAG -416 16 +5V
IOPIN -416 16 Out
FLAG -416 144 -5V
IOPIN -416 144 Out
FLAG 992 16 +50mV
IOPIN 992 16 Out
FLAG -448 768 +50mV
IOPIN -448 768 In
FLAG -320 80 V_in
IOPIN -320 80 Out
FLAG -288 784 I_in
IOPIN -288 784 Out
FLAG -32 240 V_in
IOPIN -32 240 In
FLAG -32 560 I_in
IOPIN -32 560 In
FLAG -672 320 I_sense
IOPIN -672 320 Out
FLAG -832 816 I_sense
IOPIN -832 816 In
FLAG 496 384 V_out
IOPIN 496 384 Out
SYMBOL voltage -864 176 M0
WINDOW 123 0 0 Left 0
WINDOW 39 0 0 Left 0
SYMATTR InstName V2
SYMATTR Value SINE(0 26 50 0 0 0)
SYMBOL XOR_2 64 400 R0
WINDOW 0 9 -2 Left 0
SYMATTR InstName U1
SYMBOL Opamps\\opamp2 -416 16 R0
WINDOW 0 -24 62 Left 2
SYMATTR InstName U2
SYMATTR Value TLC2272
SYMATTR SpiceModel TLC2272
SYMBOL Opamps\\opamp2 -400 720 R0
WINDOW 0 -20 64 Left 2
SYMATTR InstName U3
SYMATTR Value TLC2272
SYMATTR SpiceModel TLC2272
SYMBOL res -560 80 R90
WINDOW 0 0 56 VBottom 2
WINDOW 3 32 56 VTop 2
SYMATTR InstName R1
SYMATTR Value 22k
SYMBOL res -496 224 R180
WINDOW 0 36 76 Left 2
WINDOW 3 36 40 Left 2
SYMATTR InstName R2
SYMATTR Value 2.2k
SYMBOL cap 272 480 R180
WINDOW 0 38 48 Left 2
WINDOW 3 24 8 Left 2
SYMATTR InstName C1
SYMATTR Value 1µ
SYMBOL res 224 384 R90
WINDOW 0 0 56 VBottom 2
WINDOW 3 32 56 VTop 2
SYMATTR InstName R3
SYMATTR Value 470k
SYMBOL res -720 112 M0
SYMATTR InstName R5
SYMATTR Value 1k
SYMBOL res -720 336 M0
SYMATTR InstName R6
SYMATTR Value 30m
SYMBOL Opamps\\opamp2 336 320 R0
WINDOW 0 -25 67 Left 2
SYMATTR InstName U4
SYMATTR Value TLC2272
SYMATTR SpiceModel TLC2272
SYMBOL res 432 240 R90
WINDOW 0 0 56 VBottom 2
WINDOW 3 32 56 VTop 2
SYMATTR InstName R4
SYMATTR Value 4.7k
SYMBOL res 208 144 R0
SYMATTR InstName R8
SYMATTR Value 2.2k
SYMBOL Opamps\\opamp2 -704 736 R0
WINDOW 0 -23 65 Left 2
SYMATTR InstName U5
SYMATTR Value TLC2272
SYMATTR SpiceModel TLC2272
SYMBOL res -624 624 R90
WINDOW 0 0 56 VBottom 2
WINDOW 3 32 56 VTop 2
SYMATTR InstName R7
SYMATTR Value 180k
SYMBOL res -784 640 M180
WINDOW 0 36 76 Left 2
WINDOW 3 36 40 Left 2
SYMATTR InstName R9
SYMATTR Value 1k
SYMBOL diode -16 496 R180
WINDOW 0 24 64 Left 2
WINDOW 3 24 0 Left 2
SYMATTR InstName D1
SYMATTR Value 1N4148
SYMBOL diode -16 304 M0
SYMATTR InstName D2
SYMATTR Value 1N4148
SYMBOL res 944 -96 M0
SYMATTR InstName R10
SYMATTR Value 100k
SYMBOL res 944 32 M0
SYMATTR InstName R11
SYMATTR Value 1k
SYMBOL voltage 720 -112 R0
WINDOW 0 24 96 Left 2
WINDOW 3 24 16 Left 2
WINDOW 123 0 0 Left 0
WINDOW 39 0 0 Left 0
SYMATTR InstName V5
SYMATTR Value 5
SYMBOL voltage 720 16 R0
WINDOW 0 24 96 Left 2
WINDOW 3 24 16 Left 2
WINDOW 123 0 0 Left 0
WINDOW 39 0 0 Left 0
SYMATTR InstName V7
SYMATTR Value 5
SYMBOL cap -720 240 M0
SYMATTR InstName C3
SYMATTR Value 22µ
TEXT -488 -160 Left 2 !.tran 0 10 0 10m
TEXT -488 -192 Left 2 !.inc TLC2272.lib
