Version 4
SHEET 1 1096 712
WIRE -384 -48 -560 -48
WIRE -320 -48 -320 -128
WIRE -320 -48 -384 -48
WIRE 352 -48 -320 -48
WIRE -320 48 -320 -48
WIRE 368 64 272 64
WIRE 464 64 448 64
WIRE -112 80 -288 80
WIRE -544 96 -864 96
WIRE -416 96 -464 96
WIRE -352 96 -416 96
WIRE -864 112 -864 96
WIRE -688 112 -768 112
WIRE -768 128 -768 112
WIRE -688 128 -688 112
WIRE -320 128 -320 112
WIRE -192 128 -320 128
WIRE 352 128 352 -48
WIRE 272 144 272 64
WIRE 320 144 272 144
WIRE -112 160 -112 144
WIRE -48 160 -112 160
WIRE 464 160 464 64
WIRE 464 160 384 160
WIRE 80 176 32 176
WIRE 224 176 160 176
WIRE 320 176 224 176
WIRE -48 192 -112 192
WIRE 224 192 224 176
WIRE -112 208 -112 192
WIRE -768 224 -768 208
WIRE -736 224 -768 224
WIRE -688 224 -688 192
WIRE -688 224 -736 224
WIRE -592 224 -624 224
WIRE -480 224 -512 224
WIRE 352 224 352 192
WIRE 352 224 320 224
WIRE -864 256 -864 192
WIRE -736 256 -736 224
WIRE -288 256 -384 -48
WIRE -560 272 -560 -48
WIRE -320 272 -416 272
WIRE -624 288 -624 224
WIRE -592 288 -624 288
WIRE -112 288 -112 272
WIRE -112 288 -256 288
WIRE -480 304 -480 224
WIRE -480 304 -528 304
WIRE -336 304 -480 304
WIRE -320 304 -336 304
WIRE -592 320 -672 320
WIRE -864 352 -864 336
WIRE -736 352 -736 336
WIRE -336 384 -336 368
WIRE -672 432 -672 400
WIRE -560 448 -560 336
WIRE -288 448 -288 320
WIRE -288 448 -560 448
WIRE -192 448 -192 128
WIRE -192 448 -288 448
WIRE -128 448 -192 448
WIRE 320 448 320 224
WIRE 320 448 -128 448
FLAG -320 -208 0
FLAG -864 352 0
FLAG -672 432 0
FLAG -416 272 0
FLAG -352 64 0
FLAG -416 176 0
FLAG 224 256 0
FLAG -736 352 0
FLAG 272 -16 0
FLAG -624 144 0
FLAG -336 384 0
FLAG -128 528 0
SYMBOL voltage -672 304 R0
WINDOW 123 0 0 Left 0
WINDOW 39 0 0 Left 0
WINDOW 3 -247 108 Left 2
SYMATTR Value SINE(0 3m 50 0 0 15)
SYMATTR InstName V1
SYMBOL voltage -864 240 M0
WINDOW 123 0 0 Left 0
WINDOW 39 0 0 Left 0
SYMATTR InstName V2
SYMATTR Value SINE(0 26 50 0 0 0)
SYMBOL XOR_2 0 176 R0
SYMATTR InstName U1
SYMBOL Opamps\\opamp2 -320 16 R0
SYMATTR InstName U2
SYMATTR Value TLC2272
SYMATTR SpiceModel TLC2272
SYMBOL Opamps\\opamp2 -288 224 R0
SYMATTR InstName U3
SYMATTR Value TLC2272
SYMATTR SpiceModel TLC2272
SYMBOL voltage -320 -112 R180
WINDOW 0 24 96 Left 2
WINDOW 3 24 16 Left 2
WINDOW 123 0 0 Left 0
WINDOW 39 0 0 Left 0
SYMATTR InstName V3
SYMATTR Value 5
SYMBOL res -448 80 R90
WINDOW 0 0 56 VBottom 2
WINDOW 3 32 56 VTop 2
SYMATTR InstName R1
SYMATTR Value 22k
SYMBOL res -400 192 R180
WINDOW 0 36 76 Left 2
WINDOW 3 36 40 Left 2
SYMATTR InstName R2
SYMATTR Value 2.2k
SYMBOL cap 240 256 R180
WINDOW 0 24 56 Left 2
WINDOW 3 24 8 Left 2
SYMATTR InstName C1
SYMATTR Value 1µ
SYMBOL res 176 160 R90
WINDOW 0 0 56 VBottom 2
WINDOW 3 32 56 VTop 2
SYMATTR InstName R3
SYMATTR Value 470k
SYMBOL res -784 112 R0
SYMATTR InstName R5
SYMATTR Value 100
SYMBOL res -720 240 M0
SYMATTR InstName R6
SYMATTR Value 30m
SYMBOL cap -704 128 R0
SYMATTR InstName C2
SYMATTR Value 3.3µ
SYMBOL Opamps\\opamp2 352 96 R0
SYMATTR InstName U4
SYMATTR Value TLC2272
SYMATTR SpiceModel TLC2272
SYMBOL res 464 48 R90
WINDOW 0 0 56 VBottom 2
WINDOW 3 32 56 VTop 2
SYMATTR InstName R4
SYMATTR Value 560
SYMBOL res 256 -32 R0
SYMATTR InstName R8
SYMATTR Value 1k
SYMBOL voltage -864 96 M0
WINDOW 123 0 0 Left 0
WINDOW 39 0 0 Left 0
SYMATTR InstName V4
SYMATTR Value SINE(0 1 50 5 0 30)
SYMBOL Opamps\\opamp2 -560 240 R0
SYMATTR InstName U5
SYMATTR Value TLC2272
SYMATTR SpiceModel TLC2272
SYMBOL res -496 208 R90
WINDOW 0 0 56 VBottom 2
WINDOW 3 32 56 VTop 2
SYMATTR InstName R7
SYMATTR Value 180k
SYMBOL res -640 240 M180
WINDOW 0 36 76 Left 2
WINDOW 3 36 40 Left 2
SYMATTR InstName R9
SYMATTR Value 1k
SYMBOL voltage -128 432 R0
WINDOW 123 0 0 Left 0
WINDOW 39 0 0 Left 0
SYMATTR InstName V6
SYMATTR Value -5
SYMBOL cap -320 368 R180
WINDOW 0 24 56 Left 2
WINDOW 3 24 8 Left 2
SYMATTR InstName C3
SYMATTR Value 1µ
SYMBOL diode -96 272 R180
WINDOW 0 24 64 Left 2
WINDOW 3 24 0 Left 2
SYMATTR InstName D1
SYMATTR Value 1N4148
SYMBOL diode -128 80 R0
SYMATTR InstName D2
SYMATTR Value 1N4148
TEXT -776 -24 Left 2 !.tran 0 10 0 10m
TEXT -760 -152 Left 2 !.inc TLC2272.lib
TEXT -752 -88 Left 2 !.inc DigitalLogic.lib
TEXT -752 -120 Left 2 !.inc TL081.lib
