Version 4
SHEET 1 880 680
WIRE 224 -144 192 -144
WIRE 336 -144 304 -144
WIRE 368 -144 336 -144
WIRE 464 -144 448 -144
WIRE 528 -64 512 -64
WIRE 656 -64 608 -64
WIRE 288 -32 16 -32
WIRE -528 16 -528 -32
WIRE 336 64 336 -144
WIRE 368 64 336 64
WIRE 512 64 512 -64
WIRE 512 64 448 64
WIRE 544 64 512 64
WIRE 16 80 16 -32
WIRE 48 80 16 80
WIRE 656 80 656 -64
WIRE 656 80 608 80
WIRE 704 80 656 80
WIRE 128 96 112 96
WIRE 240 96 192 96
WIRE 288 96 288 -32
WIRE 288 96 240 96
WIRE 368 96 288 96
WIRE 480 96 448 96
WIRE 544 96 480 96
WIRE -192 112 -240 112
WIRE -80 112 -112 112
WIRE 48 112 -80 112
WIRE 288 112 288 96
WIRE -528 128 -528 96
WIRE -528 128 -592 128
WIRE -240 128 -240 112
WIRE 576 128 576 112
WIRE -528 160 -528 128
WIRE -80 160 -80 112
WIRE -240 240 -240 208
WIRE -528 272 -528 240
WIRE -240 352 -240 320
WIRE -80 352 -80 240
FLAG 288 176 0
FLAG -80 352 0
FLAG -240 352 0
FLAG 480 176 0
FLAG 464 -144 0
FLAG 240 176 0
FLAG -528 -32 +5V
IOPIN -528 -32 Out
FLAG 80 64 +5V
IOPIN 80 64 Out
FLAG 576 48 +5V
IOPIN 576 48 Out
FLAG -592 128 0
FLAG -528 272 -5V
IOPIN -528 272 Out
FLAG 80 128 -5V
IOPIN 80 128 Out
FLAG 576 128 -5V
IOPIN 576 128 Out
FLAG 192 -144 +5V
IOPIN 192 -144 Out
FLAG 704 80 V_out
IOPIN 704 80 Out
SYMBOL voltage -240 224 M0
WINDOW 123 0 0 Left 0
WINDOW 39 0 0 Left 0
SYMATTR InstName V1
SYMATTR Value SINE(0 21 50)
SYMBOL Opamps\\opamp2 80 32 R0
WINDOW 0 -25 63 Left 2
WINDOW 3 -129 103 Left 2
SYMATTR InstName U1
SYMATTR Value TLC2272
SYMATTR SpiceModel TLC2272
SYMBOL Opamps\\opamp2 576 16 R0
WINDOW 0 -23 65 Left 2
SYMATTR InstName U2
SYMATTR Value TLC2272
SYMATTR SpiceModel TLC2272
SYMBOL diode 128 112 R270
WINDOW 0 64 38 VTop 2
WINDOW 3 58 47 VBottom 2
SYMATTR InstName D1
SYMATTR Value 1N4148
SYMBOL cap 272 112 R0
WINDOW 0 27 14 Left 2
SYMATTR InstName C1
SYMATTR Value 33µ
SYMBOL res -96 96 R90
WINDOW 0 0 56 VBottom 2
WINDOW 3 32 56 VTop 2
SYMATTR InstName R1
SYMATTR Value 22k
SYMBOL res -96 144 R0
SYMATTR InstName R2
SYMATTR Value 1k
SYMBOL voltage -240 112 M0
WINDOW 123 0 0 Left 0
WINDOW 39 0 0 Left 0
SYMATTR InstName V4
SYMATTR Value SINE(0 1 50 5)
SYMBOL res 464 80 R0
SYMATTR InstName R6
SYMATTR Value 560k
SYMBOL res 464 80 R90
WINDOW 0 57 58 VBottom 2
WINDOW 3 53 59 VTop 2
SYMATTR InstName R7
SYMATTR Value 100k
SYMBOL res 464 48 R90
WINDOW 0 -23 56 VBottom 2
WINDOW 3 -26 56 VTop 2
SYMATTR InstName R8
SYMATTR Value 100k
SYMBOL res 624 -80 R90
WINDOW 0 0 56 VBottom 2
WINDOW 3 32 56 VTop 2
SYMATTR InstName R9
SYMATTR Value 560k
SYMBOL res 464 -160 R90
WINDOW 0 0 56 VBottom 2
WINDOW 3 32 56 VTop 2
SYMATTR InstName R10
SYMATTR Value 1k
SYMBOL res 320 -160 R90
WINDOW 0 0 56 VBottom 2
WINDOW 3 32 56 VTop 2
SYMATTR InstName R11
SYMATTR Value 10k
SYMBOL res 256 80 M0
SYMATTR InstName R12
SYMATTR Value 1Meg
SYMBOL voltage -528 0 R0
WINDOW 0 24 96 Left 2
WINDOW 3 24 16 Left 2
WINDOW 123 0 0 Left 0
WINDOW 39 0 0 Left 0
SYMATTR InstName V5
SYMATTR Value 5
SYMBOL voltage -528 144 R0
WINDOW 0 24 96 Left 2
WINDOW 3 24 16 Left 2
WINDOW 123 0 0 Left 0
WINDOW 39 0 0 Left 0
SYMATTR InstName V2
SYMATTR Value 5
TEXT -232 -152 Left 2 !.inc TLC2272.lib
TEXT -232 -128 Left 2 !.tran 0 10 10m
