Version 4
SHEET 1 880 680
WIRE 336 -144 272 -144
WIRE 448 -144 416 -144
WIRE 480 -144 448 -144
WIRE 448 -96 448 -144
WIRE 448 -96 304 -96
WIRE 176 -32 80 -32
WIRE 272 -32 272 -144
WIRE 272 -32 176 -32
WIRE 496 -32 272 -32
WIRE 464 -16 448 -16
WIRE 592 -16 544 -16
WIRE 272 0 16 0
WIRE 496 48 496 -32
WIRE 80 64 80 -32
WIRE 304 64 304 -96
WIRE 336 64 304 64
WIRE 448 64 448 -16
WIRE 448 64 416 64
WIRE 464 64 448 64
WIRE 16 80 16 0
WIRE 48 80 16 80
WIRE 592 80 592 -16
WIRE 592 80 528 80
WIRE 640 80 592 80
WIRE 160 96 112 96
WIRE 240 96 224 96
WIRE 272 96 272 0
WIRE 272 96 240 96
WIRE 304 96 272 96
WIRE 416 96 384 96
WIRE 464 96 416 96
WIRE -208 112 -336 112
WIRE -80 112 -128 112
WIRE 48 112 -80 112
WIRE -336 128 -336 112
WIRE 272 128 272 96
WIRE -80 160 -80 112
WIRE -336 240 -336 208
WIRE 80 288 80 128
WIRE 176 288 80 288
WIRE 496 288 496 112
WIRE 496 288 176 288
WIRE -336 352 -336 320
FLAG 272 192 0
FLAG -80 240 0
FLAG -336 352 0
FLAG 176 -112 0
FLAG 176 368 0
FLAG 720 80 0
FLAG 416 176 0
FLAG 560 -144 0
FLAG 240 176 0
SYMBOL voltage -336 224 R0
WINDOW 123 0 0 Left 0
WINDOW 39 0 0 Left 0
SYMATTR InstName V1
SYMATTR Value SINE(0 18 50)
SYMBOL Opamps\\opamp2 80 32 R0
SYMATTR InstName U1
SYMATTR Value TLC2272
SYMATTR SpiceModel TLC2272
SYMBOL Opamps\\opamp2 496 16 R0
SYMATTR InstName U2
SYMATTR Value TLC2272
SYMATTR SpiceModel TLC2272
SYMBOL diode 160 112 R270
WINDOW 0 32 32 VTop 2
WINDOW 3 0 32 VBottom 2
SYMATTR InstName D1
SYMATTR Value 1N4148
SYMBOL cap 256 128 R0
SYMATTR InstName C1
SYMATTR Value 33µ
SYMBOL res -112 96 R90
WINDOW 0 0 56 VBottom 2
WINDOW 3 32 56 VTop 2
SYMATTR InstName R1
SYMATTR Value 22k
SYMBOL res -96 144 R0
SYMATTR InstName R2
SYMATTR Value 1k
SYMBOL voltage 176 -16 R180
WINDOW 0 24 96 Left 2
WINDOW 3 24 16 Left 2
WINDOW 123 0 0 Left 0
WINDOW 39 0 0 Left 0
SYMATTR InstName V2
SYMATTR Value 5
SYMBOL voltage 176 272 R0
WINDOW 123 0 0 Left 0
WINDOW 39 0 0 Left 0
SYMATTR InstName V3
SYMATTR Value -5
SYMBOL voltage -336 112 R0
WINDOW 123 0 0 Left 0
WINDOW 39 0 0 Left 0
SYMATTR InstName V4
SYMATTR Value SINE(0 -1.5 50 5)
SYMBOL res 736 64 R90
WINDOW 0 0 56 VBottom 2
WINDOW 3 32 56 VTop 2
SYMATTR InstName R5
SYMATTR Value 100k
SYMBOL res 400 80 R0
SYMATTR InstName R6
SYMATTR Value 560k
SYMBOL res 400 80 R90
WINDOW 0 0 56 VBottom 2
WINDOW 3 32 56 VTop 2
SYMATTR InstName R7
SYMATTR Value 100k
SYMBOL res 432 48 R90
WINDOW 0 0 56 VBottom 2
WINDOW 3 32 56 VTop 2
SYMATTR InstName R8
SYMATTR Value 100k
SYMBOL res 560 -32 R90
WINDOW 0 0 56 VBottom 2
WINDOW 3 32 56 VTop 2
SYMATTR InstName R9
SYMATTR Value 560k
SYMBOL res 576 -160 R90
WINDOW 0 0 56 VBottom 2
WINDOW 3 32 56 VTop 2
SYMATTR InstName R10
SYMATTR Value 1k
SYMBOL res 432 -160 R90
WINDOW 0 0 56 VBottom 2
WINDOW 3 32 56 VTop 2
SYMATTR InstName R11
SYMATTR Value 10k
SYMBOL res 256 80 M0
SYMATTR InstName R12
SYMATTR Value 1Meg
TEXT 112 -192 Left 2 !.inc TL081.lib
TEXT 112 -168 Left 2 !.inc TLC2272.lib
TEXT -368 392 Left 2 !.tran 0 10 10m
